47
 energy=-1319.027505456
C        -1.82455658715465    0.05563907916501    1.08885126390752
C        -0.29795798541543    0.03988770352363    1.07229269303119
H        -2.18338583608085    0.84577223916716    0.42479116504184
C        -2.38528710177405    0.28349607305764    2.49041560236890
H        -2.19899853593009   -0.89478195249531    0.70093523133146
H         0.07712661546496    0.99003513881893    1.46016018109306
C         0.25553088277721   -0.18535605612355   -0.33258204108459
H         0.06274259392857   -0.75110521602562    1.73416764014228
H        -0.11107623691544    0.60310621811440   -0.99436209785820
H        -0.11711800048078   -1.13744779915351   -0.71811054743729
C         1.78200613127464   -0.19448761802548   -0.35938292304071
H         2.15576359399599    0.75751469632341    0.02518204343585
C         2.32625645913416   -0.41865854441608   -1.76808295918203
H         2.15057257851137   -0.98347794330449    0.30054731657412
H         1.95371118938397    0.36919077975432   -2.42728452850546
H         1.95246256810470   -1.37138206516173   -2.15098136591319
C         3.85247462565895   -0.42550842129658   -1.80552507195177
H         4.22749844558339    0.52714115101261   -1.42373722565550
C         4.38780136501514   -0.64947671575996   -3.21776958368753
H         4.22659808317855   -1.21380449818945   -1.14784051782626
H         4.01176166528338    0.13885831488746   -3.87451620006883
H         4.01101855848581   -1.60186351069179   -3.59879111271839
C         5.91367491184916   -0.65730650117257   -3.26327544788670
H         6.29131276714198    0.29487573723180   -2.88274932929257
C         6.44481849517961   -0.88043454042032   -4.67724586385695
H         6.29056648952478   -1.44652926921017   -2.60819173930629
H         6.06863971056361   -0.09070261142107   -5.33183155265843
H         6.06653169726048   -1.83212397640925   -5.05784260082600
C         7.96790238746244   -0.88875205026678   -4.71832312007034
H        -2.00692900700111    1.23139540004969    2.88069137399670
H        -2.03264573619999   -0.50973423266288    3.15400805507891
C        -3.91187772867744    0.30796640757028    2.49927136331198
H        -4.26313106257774    1.10035923827239    1.83374205077959
C        -4.47674090239787    0.53855968618950    3.89864407565605
H        -4.28998163690391   -0.64022410978168    2.10924924667365
H        -4.09590336304836    1.48506537098404    4.29003345235469
H        -4.12981620879315   -0.25613506523968    4.56359384578790
C        -6.00320215872150    0.56960804300977    3.90513382343569
H        -6.34993677648376    1.36421120985710    3.24026646499688
C        -6.56103085149121    0.80119674156069    5.30399203195168
H        -6.38442346187732   -0.37684678690722    3.51457274051389
H        -6.20768381733503    1.74956754862711    5.70327880637338
H        -6.24334497328607    0.00800549097294    5.97748861075722
H        -7.64835329231066    0.82056012926096    5.28543227303743
H         8.36434590051535    0.05928948611558   -4.36094057292568
H         8.32359025250769   -1.04844091064445   -5.73370509888555
H         8.36219329307057   -1.68282148874678   -4.08771985099365
