   48
Starting structure. Energy in au =   -58.56808224
C      -3.98804729      1.85031413     -0.00313089
C      -2.81448562      2.04670249      0.00166063
H      -5.03771946      1.67339074     -0.00865160
H      -1.76491767      2.22427265      0.00641186
C      -9.70954720     -6.21673454     -0.09660489
C      -8.62054525     -5.72614532     -0.06176823
H      -7.64946763     -5.28870020     -0.03041688
C      10.38843370      1.32535709     -1.55595929
C      10.66490254      0.27068411     -0.83419055
H      10.85279991      2.29211131     -1.37300368
H       9.67749317      1.29453434     -2.37899548
C      10.95047811     -0.79358323     -0.10186228
C      11.21765742     -1.77999194      0.57285455
H      11.44266540     -2.63633167      1.16262672
C       2.04871430      7.73277520    -14.98128161
C       1.52398857      6.68586064    -14.34792966
H       2.70832368      8.45025632    -14.50062407
H       1.85114022      7.94095916    -16.02825606
C       1.79341274      6.41245480    -12.94281201
H       0.86168795      5.98410176    -14.87025663
C       1.26870902      5.36542957    -12.30961197
H       2.45562544      7.11422221    -12.42039613
H       0.60919124      4.64797832    -12.79044472
H       1.46615686      5.15706221    -11.26264757
H       7.19224001     11.37122002     -8.97561001
H       7.43615001     11.07161002     -8.30918001
C      11.35675002     -0.53807000    -10.90786002
C      11.08005002      0.00936000    -11.92022002
H      11.58571002     -1.00042000     -9.97469002
C      10.71125002      0.72676000    -13.14668002
H      11.54031002      1.35579000    -13.47751002
H       9.84154002      1.36107000    -12.96125002
H      10.46697002      0.01684000    -13.93946002
H       8.24745001      4.46912001    -22.24402004
C      10.28443002      4.51699001    -21.70208003
C       8.86787001      4.76457001    -21.39546003
C      11.42854002      4.31220001    -21.91185003
H      12.46630002      4.12324001    -22.06613004
H       8.70997001      5.82853001    -21.20636003
C       3.88005001     13.88391002      3.26754001
C       4.14154001     13.98666002      1.98133000
C       4.41140001     14.05335002      0.69354000
H       4.64475001     15.22140002     -1.03409000
C       4.41430001     15.20046002      0.02768000
H       4.19071001     16.14372003      0.51837000
H       4.64794001     13.14306002      0.14094000
H       3.54845001     14.73276002      3.86658001
H       3.96168001     12.93025002      3.79423001
