   48
Starting structure. Energy in au =     0.00000000
C      -3.98581001      1.86100000     -0.01413000
C      -2.81987000      2.05034000     -0.01250000
H      -5.03326001      1.66573000      0.00341000
H      -1.76623000      2.21761000      0.01951000
C      -9.70430002     -6.20861001     -0.09633000
C      -8.62099001     -5.73794001     -0.06200000
H      -7.65427001     -5.28503001     -0.03046000
C      10.52613002      1.23166000     -1.61338000
C      10.90833002      0.27069000     -1.21965000
H      10.74562002      2.14124000     -1.05764000
H       9.55024002      1.17440000     -2.09021000
C      11.05641002     -0.76065000     -0.30760000
C      11.17299002     -1.66318000      0.51369000
H      11.23471002     -2.42138000      1.26626000
C       2.05526000      7.74703001    -14.99211002
C       1.53014000      6.69501001    -14.34834002
H       2.71321000      8.45096001    -14.48749002
H       1.83864000      7.92913001    -16.04140003
C       1.78555000      6.40289001    -12.94585002
H       0.87257000      5.99854001    -14.86761002
C       1.26213000      5.35153001    -12.29962002
H       2.44323000      7.09852001    -12.42421002
H       0.60411000      4.64424001    -12.79823002
H       1.48211000      5.17325001    -11.24940002
H       7.19224001     11.37122002     -8.97561001
H       7.43615001     11.07161002     -8.30918001
C      11.35675002     -0.53807000    -10.90786002
C      11.08005002      0.00936000    -11.92022002
H      11.58571002     -1.00042000     -9.97469002
C      10.71125002      0.72676000    -13.14668002
H      11.54031002      1.35579000    -13.47751002
H       9.84154002      1.36107000    -12.96125002
H      10.46697002      0.01684000    -13.93946002
H       8.24745001      4.46912001    -22.24402004
C      10.28443002      4.51699001    -21.70208003
C       8.86787001      4.76457001    -21.39546003
C      11.42854002      4.31220001    -21.91185003
H      12.46630002      4.12324001    -22.06613004
H       8.70997001      5.82853001    -21.20636003
C       3.88005001     13.88391002      3.26754001
C       4.14154001     13.98666002      1.98133000
C       4.41140001     14.05335002      0.69354000
H       4.64475001     15.22140002     -1.03409000
C       4.41430001     15.20046002      0.02768000
H       4.19071001     16.14372003      0.51837000
H       4.64794001     13.14306002      0.14094000
H       3.54845001     14.73276002      3.86658001
H       3.96168001     12.93025002      3.79423001
   48
Product of reaction   1 Energy in au =     0.00000000
C      -3.34096900      2.80260259     -0.00235109
C      -2.16649621      2.99961534      0.00266684
H      -4.39548515      2.61721506      0.00578175
H      -1.10794178      3.17030828      0.02078105
C     -10.57178092     -7.47910850     -0.10673057
C      -9.48911010     -6.99552026     -0.07205790
H      -8.51294690     -6.55201252     -0.04059008
C      10.40177537      1.24127484     -0.95152479
C      10.84848323      0.28128125     -0.57600372
H      10.77124339      2.21278403     -0.58640208
H       9.54380128      1.23295192     -1.64147074
C      11.10595005     -0.82633785      0.22605724
C      11.17002540     -1.70025225      1.09311346
H      11.22174859     -2.45490526      1.85610338
C       1.55663796      7.54494062    -15.35761481
C       1.04282669      6.48662958    -14.66600830
H       2.22940177      8.32053812    -14.96091894
H       1.36962670      7.77410046    -16.41716908
C       1.26178215      6.13466176    -13.24723922
H       0.38444550      5.81545312    -15.24135627
C       0.74913617      5.07669385    -12.55427078
H       1.92030220      6.80657360    -12.67165977
H       0.07679379      4.30056730    -12.94910443
H       0.93792917      4.84922570    -11.49369541
H       9.80936372     12.55084280     -8.82562898
H      10.05327372     12.25123280     -8.15919898
C      11.60254013     -1.01950973    -10.62701240
C      11.32312252     -0.46706016    -11.64628461
H      11.84054486     -1.49612787     -9.69776430
C      10.95266463      0.25502101    -12.89251301
H      11.81837936      0.87905664    -13.19866515
H      10.06729820      0.88763447    -12.67064249
H      10.71450183     -0.49962935    -13.67101694
H       8.06845847      4.79746572    -23.16327566
C      10.22112205      4.95100164    -22.64892993
C       8.80515021      5.38645619    -22.59241201
C      11.37379478      4.73358324    -22.84325723
H      12.41333224      4.56774141    -23.03955115
H       8.57745869      6.29914065    -22.01696605
C       3.73475704     13.93983170      3.58979001
C       4.00838460     14.01660125      2.28907309
C       4.27868083     14.12072196      0.98824365
H       4.50001462     15.39606147     -0.75550885
C       4.27903878     15.29177796      0.31694822
H       4.05961228     16.27329240      0.76160107
H       4.49813152     13.13532290      0.54346649
H       3.41194873     14.83341143      4.14880395
H       3.83424727     12.96820910      4.10483495
   48
Product of reaction   2 Energy in au =     0.00000000
C      -3.34549102      2.80177167     -0.00229900
C      -2.16195251      3.00035186      0.00278303
H      -4.40473983      2.61571602      0.00565996
H      -1.09870790      3.17190301      0.02073457
C     -10.57590579     -7.48103624     -0.10686500
C      -9.48916567     -6.99539818     -0.07205562
H      -8.50876735     -6.55020815     -0.04045793
C      10.39720329      1.25140425     -0.95362547
C      10.85212800      0.27838319     -0.57627458
H      10.77754881      2.22992427     -0.58063326
H       9.53054665      1.23417831     -1.65245684
C      11.11092015     -0.83350365      0.22809255
C      11.17167907     -1.70856324      1.10173860
H      11.22241901     -2.46476712      1.86801836
C       1.56366424      7.55989856    -15.36811233
C       1.03537665      6.48093204    -14.67656798
H       2.24344676      8.33810718    -14.95557958
H       1.36634274      7.78019159    -16.44018983
C       1.26924034      6.14036861    -13.23666117
H       0.36978599      5.80091042    -15.25501109
C       0.74212324      5.06173524    -12.54375948
H       1.93495442      6.82112500    -12.65798561
H       0.06275029      4.28300833    -12.95447669
H       0.94119407      4.84310484    -11.47069534
H       9.80936638     12.55084361     -8.82562969
H      10.05327638     12.25123360     -8.15919969
C      11.60581076     -1.02625900    -10.61701392
C      11.32490377     -0.47075714    -11.64282503
H      11.84463717     -1.50455317     -9.68425334
C      10.94987102      0.26012860    -12.90329601
H      11.83486833      0.89012633    -13.20532529
H      10.05077110      0.89895644    -12.66753992
H      10.71023054     -0.51459928    -13.68647058
H       8.05829525      4.79050250    -23.17176940
C      10.22243586      4.95056761    -22.65007269
C       8.79623053      5.39051665    -22.59460401
C      11.38184037      4.73222353    -22.84568737
H      12.42538048      4.56633720    -23.04356487
H       8.57367508      6.31132427    -22.01085509
C       3.73134684     13.93831719      3.60639204
C       4.00759685     14.01531660      2.29321918
C       4.28185623     14.11053838      0.97944812
H       4.50424854     15.39918173     -0.77669170
C       4.27916414     15.30591335      0.30834061
H       4.05554774     16.29263205      0.76925322
H       4.50281086     13.11327573      0.53446746
H       3.40637745     14.84866982      4.15842757
H       3.83586503     12.95138600      4.11439956
   48
Product of reaction   3 Energy in au =     0.00000000
C      -3.34988741      2.80097277     -0.00225707
C      -2.15753709      3.00107048      0.00288402
H      -4.41371811      2.61425459      0.00555140
H      -1.08974821      3.17344535      0.02070021
C     -10.57997124     -7.48292800     -0.10699728
C      -9.48921392     -6.99529174     -0.07205364
H      -8.50465407     -6.54842346     -0.04032764
C      10.39312358      1.26081194     -0.95610218
C      10.85590567      0.27535220     -0.57700180
H      10.78320908      2.24638953     -0.57555987
H       9.51780957      1.23572262     -1.66314380
C      11.11565795     -0.84036469      0.22970477
C      11.17324845     -1.71648736      1.10961882
H      11.22303519     -2.47416469      1.87906080
C       1.57006690      7.57382427    -15.37830870
C       1.02857960      6.47575976    -14.68625662
H       2.25650634      8.35455647    -14.95085619
H       1.36348889      7.78637972    -16.46210578
C       1.27604442      6.14554933    -13.22695531
H       0.35620424      5.78751692    -15.26783280
C       0.73573247      5.04780919    -12.53355247
H       1.94852923      6.83452606    -12.64514550
H       0.04969262      4.26656797    -12.95922909
H       0.94403234      4.83689093    -11.44879769
H       9.80936774     12.55084402     -8.82563005
H      10.05327774     12.25123402     -8.15920005
C      11.60893931     -1.03265716    -10.60719672
C      11.32668496     -0.47437923    -11.63907485
H      11.84852482     -1.51250636     -9.67112387
C      10.94733677      0.26480840    -12.91294543
H      11.85015528      0.90099100    -13.21204799
H      10.03504674      0.91003877    -12.66507442
H      10.70600048     -0.52820991    -13.70147594
H       8.04839145      4.78389301    -23.17953554
C      10.22387861      4.94984584    -22.65071512
C       8.78786722      5.39407488    -22.59621386
C      11.38968419      4.73075289    -22.84771642
H      12.43707083      4.56481437    -23.04708452
H       8.56982514      6.32284447    -22.00479022
C       3.72815413     13.93692674      3.62192627
C       4.00687660     14.01401749      2.29707114
C       4.28480424     14.10088635      0.97138757
H       4.50823437     15.40256746     -0.79688820
C       4.27937467     15.31890732      0.29998811
H       4.05179305     16.31066100      0.77623455
H       4.50730560     13.09273279      0.52546666
H       3.40106824     14.86274415      4.16806516
H       3.83720175     12.93578791      4.12400659
   48
Product of reaction   4 Energy in au =     0.00000000
C      -3.35381083      2.79697228      0.00292444
C      -2.15263323      2.99899029      0.00836286
H      -4.42341622      2.61582657      0.00022332
H      -1.08103006      3.17795476      0.01536795
C     -10.58360738     -7.48566565     -0.10714435
C      -9.49008202     -6.99336743     -0.07201784
H      -8.50015032     -6.54761084     -0.04021638
C      10.37649777      1.28361542     -0.95013548
C      10.76821002      0.29393295     -0.46873656
H      10.80493411      2.29176069     -0.64001916
H       9.54182514      1.26774295     -1.72310028
C      11.10333859     -0.85367493      0.27365853
C      11.21115000     -1.76831685      1.11838279
H      11.25382064     -2.52680329      1.89338039
C       1.64926185      7.69052481    -15.38596732
C       1.15922882      6.61561827    -14.58591232
H       2.34347285      8.51013733    -15.01794302
H       1.39093385      7.83488717    -16.48229583
C       1.44555332      6.33029622    -13.10400111
H       0.47199676      5.87985872    -15.11083912
C       0.34601262      4.40640452    -12.35432057
H       2.11245925      6.97864987    -12.45213879
H      -0.32577760      3.50969985    -12.49014618
H       0.93573323      5.35330242    -12.57547720
H       9.80936941     12.55084453     -8.82563050
H      10.05327941     12.25123452     -8.15920050
C      11.61222590     -1.04175949    -10.58715068
C      11.32447411     -0.47433727    -11.62173669
H      11.86302696     -1.53903655     -9.65791849
C      10.94729845      0.26347973    -12.91710792
H      11.85892393      0.90998042    -13.23036802
H      10.02096831      0.92392820    -12.68546803
H      10.70351198     -0.53821261    -13.71999860
H       8.02551856      4.77375949    -23.16977052
C      10.23588325      4.99763179    -22.71196885
C       8.78015529      5.40551251    -22.61036047
C      11.40757857      4.73728825    -22.86292617
H      12.45882867      4.53324483    -23.02823416
H       8.54322502      6.32183429    -21.98883982
C       3.72524301     13.92264535      3.64443763
C       4.00545425     14.00513387      2.30676634
C       4.28477351     14.10151658      0.96860729
H       4.51450591     15.42346224     -0.83690161
C       4.28476635     15.32840092      0.27103199
H       4.05596738     16.33195198      0.74986287
H       4.50971739     13.08651143      0.51216589
H       3.39299965     14.85399575      4.20025846
H       3.83138393     12.92161351      4.17103120
   48
Product of reaction   5 Energy in au =     0.00000000
C      -3.35809961      2.79588742      0.00352492
C      -2.14822534      2.99936711      0.00900516
H      -4.43236322      2.61468589     -0.00043820
H      -1.07220217      3.17980349      0.01478668
C     -10.58758997     -7.48747269     -0.10727266
C      -9.49009300     -6.99334307     -0.07201739
H      -8.49615676     -6.54582816     -0.04008851
C      10.37244339      1.29704595     -0.95834682
C      10.75125015      0.29865828     -0.44916284
H      10.81631008      2.31482167     -0.65764732
H       9.54007730      1.27518244     -1.75097871
C      11.08858051     -0.85392126      0.29581169
C      11.21547252     -1.78490308      1.12961610
H      11.27564230     -2.55862706      1.89413832
C       1.62403794      7.67771296    -15.43565543
C       1.04886220      6.53754094    -14.75562876
H       2.32379871      8.46575542    -14.98339178
H       1.42033801      7.90442915    -16.54136375
C       1.25058235      6.13018886    -13.27088589
H       0.36026132      5.82032014    -15.32403790
C       0.67025553      4.91379865    -12.44807400
H       1.92862979      6.80604292    -12.64276350
H      -0.02662261      4.09182866    -12.81851518
H       0.92873172      4.76176147    -11.33872527
H       9.80936941     12.55084453     -8.82563050
H      10.05327941     12.25123452     -8.15920050
C      11.61512655     -1.04778240    -10.57370456
C      11.32443196     -0.47508900    -11.61344465
H      11.86963915     -1.55114179     -9.64359548
C      10.94501132      0.26789774    -12.92438658
H      11.87100564      0.92156035    -13.23987441
H      10.00580891      0.93720295    -12.68987171
H      10.69940613     -0.54860550    -13.73487108
H       8.01316426      4.76496582    -23.16971140
C      10.24053996      5.00870674    -22.72552829
C       8.77237876      5.40826054    -22.61021683
C      11.41838154      4.73933929    -22.86935626
H      12.47330529      4.51976965    -23.01982529
H       8.53341954      6.32822920    -21.97746207
C       3.72180971     13.91932089      3.66223579
C       4.00461862     14.00283259      2.31225349
C       4.28703071     14.09437900      0.96163116
H       4.51932822     15.43040049     -0.86262703
C       4.28661901     15.33967833      0.25678090
H       4.05469225     16.34945405      0.74788752
H       4.51393224     13.07111247      0.49873878
H       3.38573049     14.86069062      4.22034532
H       3.83105015     12.90736320      4.19001413
   48
Product of reaction   6 Energy in au =     0.00000000
C      -3.36223906      2.79518817      0.00351140
C      -2.14407953      3.00006128      0.00902919
H      -4.44078554      2.61327248     -0.00048159
H      -1.06378621      3.18122197      0.01481957
C     -10.59151305     -7.48923912     -0.10739869
C      -9.49009308     -6.99334289     -0.07201739
H      -8.49223359     -6.54406191     -0.03996249
C      10.36910835      1.30644714     -0.96343462
C      10.75344064      0.29666829     -0.45043574
H      10.82274454      2.32981042     -0.65402257
H       9.52833594      1.27524718     -1.76289817
C      11.09216385     -0.85943121      0.29618027
C      11.21700910     -1.79238107      1.13547859
H      11.27697384     -2.56810382      1.90256266
C       1.62845055      7.68774577    -15.44362470
C       1.04208126      6.53088172    -14.76209610
H       2.33418575      8.47751079    -14.97680956
H       1.41740497      7.90896913    -16.56001666
C       1.25725738      6.13474498    -13.26024309
H       0.34808549      5.80818446    -15.33524538
C       0.66522141      4.90239254    -12.43913275
H       1.94074616      6.81792756    -12.63107962
H      -0.03745335      4.08177919    -12.83006181
H       0.93289535      4.75924303    -11.32073177
H       9.80936941     12.55084453     -8.82563050
H      10.05327941     12.25123452     -8.15920050
C      11.61762228     -1.05268335    -10.56494034
C      11.32550995     -0.47715602    -11.61017229
H      11.87298504     -1.55773327     -9.63163000
C      10.94240898      0.27299299    -12.93337023
H      11.88514920      0.93184851    -13.24515006
H       9.99123190      0.94776041    -12.68675489
H      10.69552231     -0.56098693    -13.74773064
H       8.00444597      4.75779874    -23.17576892
C      10.24186008      5.00790855    -22.72521024
C       8.76437471      5.41040169    -22.60953262
C      11.42569868      4.73756782    -22.87016783
H      12.48439670      4.51718061    -23.02112824
H       8.53041321      6.33841381    -21.97029230
C       3.71890923     13.91840957      3.67613084
C       4.00397875     14.00234360      2.31544016
C       4.28972936     14.08564796      0.95415679
H       4.52300438     15.43220982     -0.88051178
C       4.28669550     15.35154233      0.24971877
H       4.05113992     16.36538932      0.75520953
H       4.51804841     13.05279554      0.49011682
H       3.38080794     14.87391032      4.22891513
H       3.83249790     12.89298319      4.19808378
   48
Product of reaction   7 Energy in au =     0.00000000
C      -3.36618900      2.79452210      0.00349651
C      -2.14012375      3.00072480      0.00905014
H      -4.44877819      2.61193002     -0.00052082
H      -1.05579941      3.18256697      0.01485274
C     -10.59536245     -7.49097234     -0.10752235
C      -9.49009314     -6.99334276     -0.07201738
H      -8.48838413     -6.54232881     -0.03983883
C      10.36623160      1.31463316     -0.96790937
C      10.75569538      0.29433693     -0.45140532
H      10.82845261      2.34373721     -0.65077194
H       9.51746351      1.27559437     -1.77383354
C      11.09547359     -0.86452912      0.29653759
C      11.21837886     -1.79904909      1.14070813
H      11.27808070     -2.57646650      1.91010488
C       1.63263087      7.69713289    -15.45092282
C       1.03594733      6.52494761    -14.76813770
H       2.34391112      8.48862090    -14.97086710
H       1.41478856      7.91328526    -16.57722381
C       1.26320891      6.13895483    -13.25106350
H       0.33697697      5.79704437    -15.34532573
C       0.66070353      4.89219261    -12.43118380
H       1.95160339      6.82854849    -12.62055338
H      -0.04725250      4.07216429    -12.83939765
H       0.93635679      4.75648792    -11.30436597
H       9.80936941     12.55084453     -8.82563050
H      10.05327941     12.25123452     -8.15920050
C      11.61996020     -1.05727409    -10.55673324
C      11.32664078     -0.47932603    -11.60672210
H      11.87605269     -1.56378011     -9.62062384
C      10.94014498      0.27742701    -12.94119822
H      11.89825645      0.94160520    -13.25034762
H       9.97756046      0.95775873    -12.68411232
H      10.69181411     -0.57236837    -13.76001112
H       7.99614125      4.75120510    -23.18141082
C      10.24329011      5.00705834    -22.72487214
C       8.75715257      5.41232318    -22.60890548
C      11.43252460      4.73590102    -22.87090834
H      12.49464730      4.51482705    -23.02237141
H       8.52743351      6.34795655    -21.96363195
C       3.71631222     13.91760151      3.68856997
C       4.00341582     14.00186469      2.31826500
C       4.29214311     14.07752164      0.94765005
H       4.52637328     15.43416041     -0.89706915
C       4.28680911     15.36216178      0.24318772
H       4.04790903     16.37997718      0.76181010
H       4.52185253     13.03612742      0.48201208
H       3.37627086     14.88588112      4.23705057
H       3.83372543     12.87993591      4.20578373
   48
Product of reaction   8 Energy in au =     0.00000000
C      -3.37023977      2.79371027      0.00370091
C      -2.13602697      3.00128278      0.00929226
H      -4.45711315      2.61065900     -0.00078170
H      -1.04751045      3.18409184      0.01466709
C     -10.59918800     -7.49269622     -0.10764528
C      -9.49009430     -6.99334019     -0.07201734
H      -8.48455743     -6.54060750     -0.03971595
C      10.36540605      1.32276900     -0.97542737
C      10.74797400      0.29395636     -0.43921578
H      10.82970945      2.36670867     -0.66934381
H       9.51453881      1.29252452     -1.79537051
C      11.08468978     -0.86757693      0.31614598
C      11.22221077     -1.81547367      1.15237669
H      11.29524740     -2.60465101      1.91426522
C       1.62309110      7.69667791    -15.47922479
C       1.03754566      6.52118807    -14.75523073
H       2.34037467      8.49331562    -14.99192662
H       1.41122745      7.92574681    -16.61492083
C       1.27684381      6.14476978    -13.22179667
H       0.33515617      5.79696960    -15.35048606
C       0.66259208      4.88222926    -12.40446138
H       1.96962745      6.83855750    -12.58578299
H      -0.04852168      4.09316846    -12.88770082
H       0.92093826      4.71675617    -11.26751055
H       9.80936941     12.55084453     -8.82563050
H      10.05327941     12.25123452     -8.15920050
C      11.62409868     -1.06559162    -10.54028975
C      11.32847147     -0.48341024    -11.59532508
H      11.88271611     -1.57636520     -9.60230201
C      10.93955772      0.27856989    -12.94315041
H      11.90377964      0.95404454    -13.26506350
H       9.96522023      0.97110830    -12.69512437
H      10.68658582     -0.57431333    -13.77849334
H       7.98051760      4.74909698    -23.18006519
C      10.24974072      5.01278268    -22.73321876
C       8.75287291      5.41357263    -22.60856065
C      11.44481785      4.73556971    -22.87520065
H      12.51043917      4.50505865    -23.01822511
H       8.51280110      6.35319059    -21.95682979
C       3.69354327     13.88725581      3.80964747
C       3.99516427     13.84792533      2.42955049
C       4.30658679     13.76371220      1.05509073
H       4.33082287     16.70930521     -0.72336954
C       4.26816429     15.11637140      0.46913669
H       4.28525237     16.10494063     -0.17071070
H       4.55919931     12.79593672      0.44495572
H       3.35915647     14.89359410      4.31171238
H       3.80692175     12.85619024      4.36124682
