13
	Energy:     169.6157073
C         -1.43485        2.36267      -11.00667
C         -1.22097        3.13155      -12.09802
C         -0.53731        4.46471      -11.91581
C         -0.13615        4.91173      -10.71447
C         -0.40780        4.06772       -9.76097
C         -0.98024        2.88417       -9.69401
H         -1.11152        2.33329       -8.76643
H         -1.92245        1.39670      -11.08721
H         -1.53326        2.79863      -13.08242
H         -0.36663        5.08056      -12.79419
H         -0.11302        4.36721       -8.78362
H          0.89820        5.14700      -10.69510
H         -0.54945        5.85952      -10.47682
